Version 4
SHEET 1 880 680
WIRE 128 192 16 192
WIRE 336 192 224 192
WIRE 16 224 16 192
WIRE 336 224 336 192
WIRE 16 352 16 304
WIRE 336 352 336 304
FLAG 144 144 0
FLAG 16 432 0
FLAG 336 432 0
DATAFLAG 16 192 ""
DATAFLAG 320 192 ""
SYMBOL nmos 224 144 R90
SYMATTR InstName M1
SYMATTR Value BSS123
SYMBOL res 0 208 R0
SYMATTR InstName Rs
SYMATTR Value 10k
SYMBOL res 320 208 R0
SYMATTR InstName Rd
SYMATTR Value 5k
SYMBOL voltage 16 448 R180
WINDOW 0 37 81 Left 2
WINDOW 3 38 46 Left 2
SYMATTR InstName V1
SYMATTR Value 5
SYMBOL voltage 336 336 R0
WINDOW 0 41 33 Left 2
WINDOW 3 44 60 Left 2
SYMATTR InstName V2
SYMATTR Value 5
TEXT -52 456 Left 2 !.op
